$DATA1 SOURCE='PrimeSim HSPICE' VERSION='U-2023.03 linux6' PARAM_COUNT=3
.TITLE '.include '/home/taf27/hspice/libs/cmos_180nm_l49.lib''
 index            w1               w5               qb_max          
                  bitline_bar_min  temper           alter#          
 1                   4.0000           2.0000           0.4169       
                   7.508e-06         25.0000        1               
 2                   5.0000           2.0000           0.3440       
                   1.568e-06         25.0000        1               
 3                   6.0000           2.0000           0.2938       
                   5.156e-07         25.0000        1               
 4                   4.0000           3.0000           0.4124       
                   7.600e-06         25.0000        1               
 5                   5.0000           3.0000           0.3427       
                   1.671e-06         25.0000        1               
 6                   6.0000           3.0000           0.2935       
                   5.965e-07         25.0000        1               
 7                   4.0000           4.0000           0.4105       
                   7.676e-06         25.0000        1               
 8                   5.0000           4.0000           0.3421       
                   1.771e-06         25.0000        1               
 9                   6.0000           4.0000           0.2933       
                   6.819e-07         25.0000        1               
