$DATA1 SOURCE='PrimeSim HSPICE' VERSION='U-2023.03 linux6' PARAM_COUNT=3
.TITLE '.include '/home/taf27/hspice/libs/cmos_180nm_l49.lib''
 index            w1               w5               max_write       
                  temper           alter#          
 1                   2.0000           2.0000           1.8037       
                    25.0000        1               
 2                   2.0000           3.0000           1.8025       
                    25.0000        1               
 3                   3.0000           2.0000           1.8037       
                    25.0000        1               
 4                   2.0000           4.0000           1.8018       
                    25.0000        1               
 5                   3.0000           3.0000           1.8025       
                    25.0000        1               
 6                   4.0000           2.0000           1.8037       
                    25.0000        1               
 7                   2.0000           5.0000           1.8015       
                    25.0000        1               
 8                   3.0000           4.0000           1.8018       
                    25.0000        1               
 9                   4.0000           3.0000           1.8025       
                    25.0000        1               
 10                  5.0000           2.0000           1.8037       
                    25.0000        1               
 11                  2.0000           6.0000           1.8012       
                    25.0000        1               
 12                  3.0000           5.0000           1.8015       
                    25.0000        1               
 13                  4.0000           4.0000           1.8018       
                    25.0000        1               
 14                  5.0000           3.0000           1.8025       
                    25.0000        1               
 15                  6.0000           2.0000           1.8037       
                    25.0000        1               
 16                  2.0000           7.0000           1.8011       
                    25.0000        1               
 17                  3.0000           6.0000           1.8012       
                    25.0000        1               
 18                  4.0000           5.0000           1.8015       
                    25.0000        1               
 19                  5.0000           4.0000           1.8018       
                    25.0000        1               
 20                  6.0000           3.0000           1.8025       
                    25.0000        1               
 21                  7.0000           2.0000           1.8037       
                    25.0000        1               
 22                  2.0000           8.0000           1.8009       
                    25.0000        1               
 23                  3.0000           7.0000           1.8011       
                    25.0000        1               
 24                  4.0000           6.0000           1.8012       
                    25.0000        1               
 25                  5.0000           5.0000           1.8015       
                    25.0000        1               
 26                  6.0000           4.0000           1.8018       
                    25.0000        1               
 27                  7.0000           3.0000           1.8025       
                    25.0000        1               
 28                  8.0000           2.0000           1.8037       
                    25.0000        1               
 29                  2.0000           9.0000           1.8008       
                    25.0000        1               
 30                  3.0000           8.0000           1.8009       
                    25.0000        1               
 31                  4.0000           7.0000           1.8011       
                    25.0000        1               
 32                  5.0000           6.0000           1.8012       
                    25.0000        1               
 33                  6.0000           5.0000           1.8015       
                    25.0000        1               
 34                  7.0000           4.0000           1.8018       
                    25.0000        1               
 35                  8.0000           3.0000           1.8024       
                    25.0000        1               
 36                  9.0000           2.0000           1.8037       
                    25.0000        1               
 37                  2.0000          10.0000           1.8007       
                    25.0000        1               
 38                  3.0000           9.0000           1.8008       
                    25.0000        1               
 39                  4.0000           8.0000           1.8009       
                    25.0000        1               
 40                  5.0000           7.0000           1.8011       
                    25.0000        1               
 41                  6.0000           6.0000           1.8012       
                    25.0000        1               
 42                  7.0000           5.0000           1.8015       
                    25.0000        1               
 43                  8.0000           4.0000           1.8018       
                    25.0000        1               
 44                  9.0000           3.0000           1.8025       
                    25.0000        1               
 45                 10.0000           2.0000           1.8037       
                    25.0000        1               
 46                  2.0000          11.0000           1.8007       
                    25.0000        1               
 47                  3.0000          10.0000           1.8007       
                    25.0000        1               
 48                  4.0000           9.0000           1.8008       
                    25.0000        1               
 49                  5.0000           8.0000           1.8009       
                    25.0000        1               
 50                  6.0000           7.0000           1.8011       
                    25.0000        1               
 51                  7.0000           6.0000           1.8012       
                    25.0000        1               
 52                  8.0000           5.0000           1.8015       
                    25.0000        1               
 53                  9.0000           4.0000           1.8018       
                    25.0000        1               
 54                 10.0000           3.0000           1.8024       
                    25.0000        1               
 55                 11.0000           2.0000           1.8037       
                    25.0000        1               
 56                  2.0000          12.0000           1.8097       
                    25.0000        1               
 57                  3.0000          11.0000           1.8007       
                    25.0000        1               
 58                  4.0000          10.0000           1.8007       
                    25.0000        1               
 59                  5.0000           9.0000           1.8008       
                    25.0000        1               
 60                  6.0000           8.0000           1.8009       
                    25.0000        1               
 61                  7.0000           7.0000           1.8011       
                    25.0000        1               
 62                  8.0000           6.0000           1.8012       
                    25.0000        1               
 63                  9.0000           5.0000           1.8015       
                    25.0000        1               
 64                 10.0000           4.0000           1.8018       
                    25.0000        1               
 65                 11.0000           3.0000           1.8024       
                    25.0000        1               
 66                 12.0000           2.0000           1.8036       
                    25.0000        1               
 67                  2.0000          13.0000           1.8006       
                    25.0000        1               
 68                  3.0000          12.0000           1.8006       
                    25.0000        1               
 69                  4.0000          11.0000           1.8117       
                    25.0000        1               
 70                  5.0000          10.0000           1.8007       
                    25.0000        1               
 71                  6.0000           9.0000           1.8008       
                    25.0000        1               
 72                  7.0000           8.0000           1.8009       
                    25.0000        1               
 73                  8.0000           7.0000           1.8011       
                    25.0000        1               
 74                  9.0000           6.0000           1.8012       
                    25.0000        1               
 75                 10.0000           5.0000           1.8015       
                    25.0000        1               
 76                 11.0000           4.0000           1.8018       
                    25.0000        1               
 77                 12.0000           3.0000           1.8025       
                    25.0000        1               
 78                 13.0000           2.0000           1.8037       
                    25.0000        1               
 79                  2.0000          14.0000           1.8026       
                    25.0000        1               
 80                  3.0000          13.0000           1.8006       
                    25.0000        1               
 81                  4.0000          12.0000           1.8007       
                    25.0000        1               
 82                  5.0000          11.0000           1.8007       
                    25.0000        1               
 83                  6.0000          10.0000           1.8007       
                    25.0000        1               
 84                  7.0000           9.0000           1.8008       
                    25.0000        1               
 85                  8.0000           8.0000           1.8009       
                    25.0000        1               
 86                  9.0000           7.0000           1.8011       
                    25.0000        1               
 87                 10.0000           6.0000           1.8012       
                    25.0000        1               
 88                 11.0000           5.0000           1.8015       
                    25.0000        1               
 89                 12.0000           4.0000           1.8018       
                    25.0000        1               
 90                 13.0000           3.0000           1.8025       
                    25.0000        1               
 91                 14.0000           2.0000           1.8036       
                    25.0000        1               
 92                  2.0000          15.0000           1.8005       
                    25.0000        1               
 93                  3.0000          14.0000           1.8005       
                    25.0000        1               
 94                  4.0000          13.0000           1.8006       
                    25.0000        1               
 95                  5.0000          12.0000           1.8006       
                    25.0000        1               
 96                  6.0000          11.0000           1.8007       
                    25.0000        1               
 97                  7.0000          10.0000           1.8007       
                    25.0000        1               
 98                  8.0000           9.0000           1.8008       
                    25.0000        1               
 99                  9.0000           8.0000           1.8009       
                    25.0000        1               
 100                10.0000           7.0000           1.8011       
                    25.0000        1               
 101                11.0000           6.0000           1.8039       
                    25.0000        1               
 102                12.0000           5.0000           1.8015       
                    25.0000        1               
 103                13.0000           4.0000           1.8018       
                    25.0000        1               
 104                14.0000           3.0000           1.8024       
                    25.0000        1               
 105                15.0000           2.0000           1.8035       
                    25.0000        1               
 106                 2.0000          16.0000           1.8005       
                    25.0000        1               
 107                 3.0000          15.0000           1.8005       
                    25.0000        1               
 108                 4.0000          14.0000           1.8006       
                    25.0000        1               
 109                 5.0000          13.0000           1.8005       
                    25.0000        1               
 110                 6.0000          12.0000           1.8005       
                    25.0000        1               
 111                 7.0000          11.0000           1.8007       
                    25.0000        1               
 112                 8.0000          10.0000           1.8007       
                    25.0000        1               
 113                 9.0000           9.0000           1.8008       
                    25.0000        1               
 114                10.0000           8.0000           1.8009       
                    25.0000        1               
 115                11.0000           7.0000           1.8011       
                    25.0000        1               
 116                12.0000           6.0000           1.8034       
                    25.0000        1               
 117                13.0000           5.0000           1.8015       
                    25.0000        1               
 118                14.0000           4.0000           1.8018       
                    25.0000        1               
 119                15.0000           3.0000           1.8025       
                    25.0000        1               
 120                16.0000           2.0000           1.8033       
                    25.0000        1               
 121                 2.0000          17.0000           1.8004       
                    25.0000        1               
 122                 3.0000          16.0000           1.8004       
                    25.0000        1               
 123                 4.0000          15.0000           1.8002       
                    25.0000        1               
 124                 5.0000          14.0000           1.8000       
                    25.0000        1               
 125                 6.0000          13.0000           1.8000       
                    25.0000        1               
 126                 7.0000          12.0000           1.8000       
                    25.0000        1               
 127                 8.0000          11.0000           1.8001       
                    25.0000        1               
 128                 9.0000          10.0000           1.8006       
                    25.0000        1               
 129                10.0000           9.0000           1.8008       
                    25.0000        1               
 130                11.0000           8.0000           1.8009       
                    25.0000        1               
 131                12.0000           7.0000           1.8010       
                    25.0000        1               
 132                13.0000           6.0000           1.8026       
                    25.0000        1               
 133                14.0000           5.0000           1.8015       
                    25.0000        1               
 134                15.0000           4.0000           1.8018       
                    25.0000        1               
 135                16.0000           3.0000           1.8025       
                    25.0000        1               
 136                17.0000           2.0000           1.8030       
                    25.0000        1               
 137                 2.0000          18.0000           1.8004       
                    25.0000        1               
 138                 3.0000          17.0000           1.8000       
                    25.0000        1               
 139                 4.0000          16.0000           1.8001       
                    25.0000        1               
 140                 5.0000          15.0000           1.8001       
                    25.0000        1               
 141                 6.0000          14.0000           1.8002       
                    25.0000        1               
 142                 7.0000          13.0000           1.8003       
                    25.0000        1               
 143                 8.0000          12.0000           1.8001       
                    25.0000        1               
 144                 9.0000          11.0000           1.8001       
                    25.0000        1               
 145                10.0000          10.0000           1.8000       
                    25.0000        1               
 146                11.0000           9.0000           1.8005       
                    25.0000        1               
 147                12.0000           8.0000           1.8008       
                    25.0000        1               
 148                13.0000           7.0000           1.8011       
                    25.0000        1               
 149                14.0000           6.0000           1.8023       
                    25.0000        1               
 150                15.0000           5.0000           1.8015       
                    25.0000        1               
 151                16.0000           4.0000           1.8018       
                    25.0000        1               
 152                17.0000           3.0000           1.8025       
                    25.0000        1               
 153                18.0000           2.0000           1.8027       
                    25.0000        1               
 154                 2.0000          19.0000           1.8001       
                    25.0000        1               
 155                 3.0000          18.0000           1.8001       
                    25.0000        1               
 156                 4.0000          17.0000           1.8000       
                    25.0000        1               
 157                 5.0000          16.0000           1.8000       
                    25.0000        1               
 158                 6.0000          15.0000           1.8000       
                    25.0000        1               
 159                 7.0000          14.0000           1.8000       
                    25.0000        1               
 160                 8.0000          13.0000           1.8000       
                    25.0000        1               
 161                 9.0000          12.0000           1.8000       
                    25.0000        1               
 162                10.0000          11.0000           1.8000       
                    25.0000        1               
 163                11.0000          10.0000           1.8000       
                    25.0000        1               
 164                12.0000           9.0000           1.8000       
                    25.0000        1               
 165                13.0000           8.0000           1.8006       
                    25.0000        1               
 166                14.0000           7.0000           1.8011       
                    25.0000        1               
 167                15.0000           6.0000           1.8019       
                    25.0000        1               
 168                16.0000           5.0000           1.8015       
                    25.0000        1               
 169                17.0000           4.0000           1.8018       
                    25.0000        1               
 170                18.0000           3.0000           1.8023       
                    25.0000        1               
 171                19.0000           2.0000           1.8019       
                    25.0000        1               
 172                 2.0000          20.0000           1.8000       
                    25.0000        1               
 173                 3.0000          19.0000           1.8004       
                    25.0000        1               
 174                 4.0000          18.0000           1.8000       
                    25.0000        1               
 175                 5.0000          17.0000           1.8000       
                    25.0000        1               
 176                 6.0000          16.0000           1.8000       
                    25.0000        1               
 177                 7.0000          15.0000           1.8000       
                    25.0000        1               
 178                 8.0000          14.0000           1.8000       
                    25.0000        1               
 179                 9.0000          13.0000           1.8000       
                    25.0000        1               
 180                10.0000          12.0000           1.8000       
                    25.0000        1               
 181                11.0000          11.0000           1.8000       
                    25.0000        1               
 182                12.0000          10.0000           1.8000       
                    25.0000        1               
 183                13.0000           9.0000           1.8001       
                    25.0000        1               
 184                14.0000           8.0000           1.8001       
                    25.0000        1               
 185                15.0000           7.0000           1.8010       
                    25.0000        1               
 186                16.0000           6.0000           1.8016       
                    25.0000        1               
 187                17.0000           5.0000           1.8014       
                    25.0000        1               
 188                18.0000           4.0000           1.8018       
                    25.0000        1               
 189                19.0000           3.0000           1.8022       
                    25.0000        1               
 190                20.0000           2.0000           1.8010       
                    25.0000        1               
 191                 3.0000          20.0000           1.8000       
                    25.0000        1               
 192                 4.0000          19.0000           1.8000       
                    25.0000        1               
 193                 5.0000          18.0000           1.8000       
                    25.0000        1               
 194                 6.0000          17.0000           1.8000       
                    25.0000        1               
 195                 7.0000          16.0000           1.8000       
                    25.0000        1               
 196                 8.0000          15.0000           1.8000       
                    25.0000        1               
 197                 9.0000          14.0000           1.8000       
                    25.0000        1               
 198                10.0000          13.0000           1.8000       
                    25.0000        1               
 199                11.0000          12.0000           1.8000       
                    25.0000        1               
 200                12.0000          11.0000           1.8000       
                    25.0000        1               
 201                13.0000          10.0000           1.8000       
                    25.0000        1               
 202                14.0000           9.0000           1.8001       
                    25.0000        1               
 203                15.0000           8.0000           1.8000       
                    25.0000        1               
 204                16.0000           7.0000           1.8008       
                    25.0000        1               
 205                17.0000           6.0000           1.8015       
                    25.0000        1               
 206                18.0000           5.0000           1.8014       
                    25.0000        1               
 207                19.0000           4.0000           1.8017       
                    25.0000        1               
 208                20.0000           3.0000           1.8020       
                    25.0000        1               
 209                 4.0000          20.0000           1.8000       
                    25.0000        1               
 210                 5.0000          19.0000           1.8000       
                    25.0000        1               
 211                 6.0000          18.0000           1.8000       
                    25.0000        1               
 212                 7.0000          17.0000           1.8000       
                    25.0000        1               
 213                 8.0000          16.0000           1.8000       
                    25.0000        1               
 214                 9.0000          15.0000           1.8000       
                    25.0000        1               
 215                10.0000          14.0000           1.8000       
                    25.0000        1               
 216                11.0000          13.0000           1.8000       
                    25.0000        1               
 217                12.0000          12.0000           1.8000       
                    25.0000        1               
 218                13.0000          11.0000           1.8000       
                    25.0000        1               
 219                14.0000          10.0000           1.8000       
                    25.0000        1               
 220                15.0000           9.0000           1.8000       
                    25.0000        1               
 221                16.0000           8.0000           1.8000       
                    25.0000        1               
 222                17.0000           7.0000           1.8003       
                    25.0000        1               
 223                18.0000           6.0000           1.8014       
                    25.0000        1               
 224                19.0000           5.0000           1.8013       
                    25.0000        1               
 225                20.0000           4.0000           1.8017       
                    25.0000        1               
 226                 5.0000          20.0000           1.8000       
                    25.0000        1               
 227                 6.0000          19.0000           1.8000       
                    25.0000        1               
 228                 7.0000          18.0000           1.8000       
                    25.0000        1               
 229                 8.0000          17.0000           1.8000       
                    25.0000        1               
 230                 9.0000          16.0000           1.8000       
                    25.0000        1               
 231                10.0000          15.0000           1.8000       
                    25.0000        1               
 232                11.0000          14.0000           1.8000       
                    25.0000        1               
 233                12.0000          13.0000           1.8000       
                    25.0000        1               
 234                13.0000          12.0000           1.8000       
                    25.0000        1               
 235                14.0000          11.0000           1.8000       
                    25.0000        1               
 236                15.0000          10.0000           1.8000       
                    25.0000        1               
 237                16.0000           9.0000           1.8000       
                    25.0000        1               
 238                17.0000           8.0000           1.8002       
                    25.0000        1               
 239                18.0000           7.0000           1.8000       
                    25.0000        1               
 240                19.0000           6.0000           1.8010       
                    25.0000        1               
 241                20.0000           5.0000           1.8011       
                    25.0000        1               
 242                 6.0000          20.0000           1.8000       
                    25.0000        1               
 243                 7.0000          19.0000           1.8000       
                    25.0000        1               
 244                 8.0000          18.0000           0.3724       
                    25.0000        1               
 245                 9.0000          17.0000           1.8000       
                    25.0000        1               
 246                10.0000          16.0000           1.8000       
                    25.0000        1               
 247                11.0000          15.0000           1.8000       
                    25.0000        1               
 248                12.0000          14.0000           1.8000       
                    25.0000        1               
 249                13.0000          13.0000           1.8000       
                    25.0000        1               
 250                14.0000          12.0000           1.8000       
                    25.0000        1               
 251                15.0000          11.0000           1.8000       
                    25.0000        1               
 252                16.0000          10.0000           1.8000       
                    25.0000        1               
 253                17.0000           9.0000           1.8000       
                    25.0000        1               
 254                18.0000           8.0000           1.8000       
                    25.0000        1               
 255                19.0000           7.0000           1.8000       
                    25.0000        1               
 256                20.0000           6.0000           1.8000       
                    25.0000        1               
 257                 7.0000          20.0000           0.3459       
                    25.0000        1               
 258                 8.0000          19.0000           0.3099       
                    25.0000        1               
 259                 9.0000          18.0000           0.2869       
                    25.0000        1               
 260                10.0000          17.0000           0.2736       
                    25.0000        1               
 261                11.0000          16.0000           0.2711       
                    25.0000        1               
 262                12.0000          15.0000           1.8000       
                    25.0000        1               
 263                13.0000          14.0000           1.8000       
                    25.0000        1               
 264                14.0000          13.0000           1.8000       
                    25.0000        1               
 265                15.0000          12.0000           1.8000       
                    25.0000        1               
 266                16.0000          11.0000           1.8000       
                    25.0000        1               
 267                17.0000          10.0000           1.8000       
                    25.0000        1               
 268                18.0000           9.0000           1.8000       
                    25.0000        1               
 269                19.0000           8.0000           1.8000       
                    25.0000        1               
 270                20.0000           7.0000           1.8000       
                    25.0000        1               
 271                 8.0000          20.0000           0.2904       
                    25.0000        1               
 272                 9.0000          19.0000           0.2665       
                    25.0000        1               
 273                10.0000          18.0000           0.2500       
                    25.0000        1               
 274                11.0000          17.0000           0.2397       
                    25.0000        1               
 275                12.0000          16.0000           0.2362       
                    25.0000        1               
 276                13.0000          15.0000           0.2439       
                    25.0000        1               
 277                14.0000          14.0000           1.8000       
                    25.0000        1               
 278                15.0000          13.0000           1.8000       
                    25.0000        1               
 279                16.0000          12.0000           1.8000       
                    25.0000        1               
 280                17.0000          11.0000           1.8000       
                    25.0000        1               
 281                18.0000          10.0000           1.8000       
                    25.0000        1               
 282                19.0000           9.0000           1.8000       
                    25.0000        1               
 283                20.0000           8.0000           1.8000       
                    25.0000        1               
 284                 9.0000          20.0000           0.2541       
                    25.0000        1               
 285                10.0000          19.0000           0.2361       
                    25.0000        1               
 286                11.0000          18.0000           0.2232       
                    25.0000        1               
 287                12.0000          17.0000           0.2151       
                    25.0000        1               
 288                13.0000          16.0000           0.2121       
                    25.0000        1               
 289                14.0000          15.0000           0.2162       
                    25.0000        1               
 290                15.0000          14.0000           0.2430       
                    25.0000        1               
 291                16.0000          13.0000           1.8000       
                    25.0000        1               
 292                17.0000          12.0000           1.8000       
                    25.0000        1               
 293                18.0000          11.0000           1.8000       
                    25.0000        1               
 294                19.0000          10.0000           1.8000       
                    25.0000        1               
 295                20.0000           9.0000           1.8000       
                    25.0000        1               
 296                10.0000          20.0000           0.2268       
                    25.0000        1               
 297                11.0000          19.0000           0.2125       
                    25.0000        1               
 298                12.0000          18.0000           0.2022       
                    25.0000        1               
 299                13.0000          17.0000           0.1958       
                    25.0000        1               
 300                14.0000          16.0000           0.1933       
                    25.0000        1               
 301                15.0000          15.0000           0.1963       
                    25.0000        1               
 302                16.0000          14.0000           0.2112       
                    25.0000        1               
 303                17.0000          13.0000           1.8000       
                    25.0000        1               
 304                18.0000          12.0000           1.8000       
                    25.0000        1               
 305                19.0000          11.0000           1.8000       
                    25.0000        1               
 306                20.0000          10.0000           1.8000       
                    25.0000        1               
 307                11.0000          20.0000           0.2052       
                    25.0000        1               
 308                12.0000          19.0000           0.1935       
                    25.0000        1               
 309                13.0000          18.0000           0.1851       
                    25.0000        1               
 310                14.0000          17.0000           0.1799       
                    25.0000        1               
 311                15.0000          16.0000           0.1780       
                    25.0000        1               
 312                16.0000          15.0000           0.1804       
                    25.0000        1               
 313                17.0000          14.0000           0.1913       
                    25.0000        1               
 314                18.0000          13.0000           1.8000       
                    25.0000        1               
 315                19.0000          12.0000           1.8000       
                    25.0000        1               
 316                20.0000          11.0000           1.8000       
                    25.0000        1               
 317                12.0000          20.0000           0.1874       
                    25.0000        1               
 318                13.0000          19.0000           0.1778       
                    25.0000        1               
 319                14.0000          18.0000           0.1709       
                    25.0000        1               
 320                15.0000          17.0000           0.1665       
                    25.0000        1               
 321                16.0000          16.0000           0.1651       
                    25.0000        1               
 322                17.0000          15.0000           0.1673       
                    25.0000        1               
 323                18.0000          14.0000           0.1761       
                    25.0000        1               
 324                19.0000          13.0000           0.2115       
                    25.0000        1               
 325                20.0000          12.0000           1.8000       
                    25.0000        1               
 326                13.0000          20.0000           0.1726       
                    25.0000        1               
 327                14.0000          19.0000           0.1645       
                    25.0000        1               
 328                15.0000          18.0000           0.1587       
                    25.0000        1               
 329                16.0000          17.0000           0.1551       
                    25.0000        1               
 330                17.0000          16.0000           0.1541       
                    25.0000        1               
 331                18.0000          15.0000           0.1562       
                    25.0000        1               
 332                19.0000          14.0000           0.1637       
                    25.0000        1               
 333                20.0000          13.0000           0.1875       
                    25.0000        1               
 334                14.0000          20.0000           0.1600       
                    25.0000        1               
 335                15.0000          19.0000           0.1531       
                    25.0000        1               
 336                16.0000          18.0000           0.1482       
                    25.0000        1               
 337                17.0000          17.0000           0.1453       
                    25.0000        1               
 338                18.0000          16.0000           0.1445       
                    25.0000        1               
 339                19.0000          15.0000           0.1466       
                    25.0000        1               
 340                20.0000          14.0000           0.1532       
                    25.0000        1               
 341                15.0000          20.0000           0.1491       
                    25.0000        1               
 342                16.0000          19.0000           0.1432       
                    25.0000        1               
 343                17.0000          18.0000           0.1390       
                    25.0000        1               
 344                18.0000          17.0000           0.1366       
                    25.0000        1               
 345                19.0000          16.0000           0.1361       
                    25.0000        1               
 346                20.0000          15.0000           0.1382       
                    25.0000        1               
 347                16.0000          20.0000           0.1396       
                    25.0000        1               
 348                17.0000          19.0000           0.1346       
                    25.0000        1               
 349                18.0000          18.0000           0.1310       
                    25.0000        1               
 350                19.0000          17.0000           0.1289       
                    25.0000        1               
 351                20.0000          16.0000           0.1287       
                    25.0000        1               
 352                17.0000          20.0000           0.1313       
                    25.0000        1               
 353                18.0000          19.0000           0.1269       
                    25.0000        1               
 354                19.0000          18.0000           0.1238       
                    25.0000        1               
 355                20.0000          17.0000           0.1221       
                    25.0000        1               
 356                18.0000          20.0000           0.1239       
                    25.0000        1               
 357                19.0000          19.0000           0.1200       
                    25.0000        1               
 358                20.0000          18.0000           0.1174       
                    25.0000        1               
 359                19.0000          20.0000           0.1173       
                    25.0000        1               
 360                20.0000          19.0000           0.1139       
                    25.0000        1               
 361                20.0000          20.0000           0.1114       
                    25.0000        1               
