$DATA1 SOURCE='PrimeSim HSPICE' VERSION='U-2023.03 linux6' PARAM_COUNT=3
.TITLE '.include '/home/taf27/hspice/libs/cmos_180nm_l49.lib''
 index            w1               w5               max_write       
                  temper           alter#          
 1                   4.0000           2.0000           1.8037       
                    25.0000        1               
 2                   5.0000           2.0000           1.8037       
                    25.0000        1               
 3                   6.0000           2.0000           1.8037       
                    25.0000        1               
 4                   4.0000           3.0000           1.8025       
                    25.0000        1               
 5                   5.0000           3.0000           1.8025       
                    25.0000        1               
 6                   6.0000           3.0000           1.8025       
                    25.0000        1               
 7                   4.0000           4.0000           1.8018       
                    25.0000        1               
 8                   5.0000           4.0000           1.8018       
                    25.0000        1               
 9                   6.0000           4.0000           1.8018       
                    25.0000        1               
